Circuit: * Voltage Level Shifter Using Regulated Cross Coupled Pull Up Networks

WARNING: Less than two connections to node VDDL.  This node is used by VDDL.
Instance "mn8": Length shorter than recommended for a level 1 MOSFET.
Instance "mn8": Width narrower than recommended for a level 1 MOSFET.
Instance "mn6": Length shorter than recommended for a level 1 MOSFET.
Instance "mn6": Width narrower than recommended for a level 1 MOSFET.
Instance "mn4": Length shorter than recommended for a level 1 MOSFET.
Instance "mn4": Width narrower than recommended for a level 1 MOSFET.
Instance "mn3": Length shorter than recommended for a level 1 MOSFET.
Instance "mn3": Width narrower than recommended for a level 1 MOSFET.
Instance "mp7": Length shorter than recommended for a level 1 MOSFET.
Instance "mp7": Width narrower than recommended for a level 1 MOSFET.
Instance "mp5": Length shorter than recommended for a level 1 MOSFET.
Instance "mp5": Width narrower than recommended for a level 1 MOSFET.
Instance "mp2": Length shorter than recommended for a level 1 MOSFET.
Instance "mp2": Width narrower than recommended for a level 1 MOSFET.
Instance "mp1": Length shorter than recommended for a level 1 MOSFET.
Instance "mp1": Width narrower than recommended for a level 1 MOSFET.
Direct Newton iteration for .op point succeeded.


Measurement "trise" FAIL'ed

Measurement "tfall" FAIL'ed

Measurement "delay" FAIL'ed
avg_power: AVG(-v(vddh)*i(vddh))=1.8e-005 FROM 0 TO 2e-008


Date: Fri Nov 15 09:41:41 2024
Total elapsed time: 0.232 seconds.

tnom = 27
temp = 27
method = modified trap
totiter = 532
traniter = 490
tranpoints = 246
accept = 243
rejected = 3
matrix size = 11
fillins = 0
solver = Normal
Matrix Compiler1: 450 bytes object code size  0.8/0.5/[0.4]
Matrix Compiler2: 835 bytes object code size  0.6/0.9/[0.2]

